Version 4
SHEET 1 880 680
WIRE 64 112 16 112
WIRE 336 112 208 112
WIRE 480 112 336 112
WIRE 672 112 608 112
WIRE 336 128 336 112
WIRE 16 144 16 112
WIRE 16 272 16 224
WIRE 208 272 16 272
WIRE 336 272 208 272
WIRE 480 272 480 256
WIRE 480 272 336 272
WIRE 560 272 560 256
WIRE 560 272 480 272
WIRE 672 272 672 192
WIRE 672 272 560 272
FLAG 208 272 0
SYMBOL voltage 16 128 R0
WINDOW 123 0 0 Left 2
WINDOW 39 0 0 Left 2
SYMATTR InstName V1
SYMATTR Value PULSE(1 3 1 0.1 0.1 1)
SYMBOL ind 48 128 R270
WINDOW 0 32 56 VTop 2
WINDOW 3 5 56 VBottom 2
SYMATTR InstName L1
SYMATTR Value 1
SYMBOL cap 208 96 R90
WINDOW 0 0 32 VBottom 2
WINDOW 3 32 32 VTop 2
SYMATTR InstName C1
SYMATTR Value 1
SYMBOL res 192 96 R0
SYMATTR InstName R1
SYMATTR Value 100
SYMBOL ind 192 176 R0
SYMATTR InstName L2
SYMATTR Value 0.1
SYMBOL cap 320 208 R0
SYMATTR InstName C2
SYMATTR Value 0.0001
SYMBOL res 320 112 R0
SYMATTR InstName R2
SYMATTR Value 100
SYMBOL cap 464 112 R0
SYMATTR InstName C3
SYMATTR Value 2
SYMBOL ind 464 192 R270
WINDOW 0 32 56 VTop 2
WINDOW 3 5 56 VBottom 2
SYMATTR InstName L3
SYMATTR Value 1
SYMBOL res 464 160 R0
SYMATTR InstName R3
SYMATTR Value 10
SYMBOL res 544 160 R0
SYMATTR InstName R4
SYMATTR Value 100
SYMBOL cap 544 96 R90
WINDOW 0 0 32 VBottom 2
WINDOW 3 32 32 VTop 2
SYMATTR InstName C4
SYMATTR Value 1
SYMBOL cap 608 96 R90
WINDOW 0 0 32 VBottom 2
WINDOW 3 32 32 VTop 2
SYMATTR InstName C5
SYMATTR Value 100
SYMBOL res 656 96 R0
SYMATTR InstName R5
SYMATTR Value 10
TEXT -16 296 Left 2 !.tran 10
