Version 4
SHEET 1 880 680
WIRE -336 -240 -880 -240
WIRE -512 -192 -960 -192
WIRE 48 -192 -160 -192
WIRE 176 -176 112 -176
WIRE 256 -176 176 -176
WIRE -624 -160 -688 -160
WIRE 48 -160 16 -160
WIRE -880 -128 -880 -240
WIRE -800 -128 -880 -128
WIRE -624 -64 -624 -160
WIRE 16 -64 16 -160
WIRE 48 -64 16 -64
WIRE -960 -48 -960 -192
WIRE -800 -48 -800 -128
WIRE -656 -48 -800 -48
WIRE -512 -32 -512 -192
WIRE -512 -32 -592 -32
WIRE -480 -32 -512 -32
WIRE -336 -32 -336 -240
WIRE -256 -32 -272 -32
WIRE -160 -32 -160 -192
WIRE -160 -32 -256 -32
WIRE -656 -16 -672 -16
WIRE -1152 16 -1232 16
WIRE -1120 16 -1152 16
WIRE -960 16 -1008 16
WIRE -800 16 -960 16
WIRE -688 16 -720 16
WIRE -672 16 -672 -16
WIRE -672 16 -688 16
WIRE -1232 32 -1232 16
WIRE 176 32 176 -176
WIRE -688 48 -688 16
WIRE -336 48 -336 -32
WIRE -256 48 -256 -32
WIRE -160 48 -160 -32
WIRE 176 64 176 32
WIRE 176 64 160 64
WIRE -256 80 -256 48
WIRE -112 128 -160 128
WIRE 16 128 -48 128
WIRE 48 128 48 -64
WIRE 48 128 16 128
WIRE 96 128 96 32
WIRE 96 128 48 128
WIRE 160 176 160 144
WIRE 160 176 48 176
WIRE 160 208 160 176
WIRE 48 272 48 176
WIRE 48 272 -32 272
WIRE -160 288 -160 128
WIRE -96 288 -160 288
WIRE 16 304 16 128
WIRE 16 304 -32 304
WIRE -336 416 -336 48
WIRE 160 416 160 288
WIRE 160 416 -336 416
FLAG -1232 112 0
FLAG -688 128 0
FLAG -624 0 0
FLAG -688 -80 0
FLAG -416 48 0
FLAG -256 160 0
FLAG -64 320 0
FLAG -64 176 0
FLAG 80 -144 0
FLAG 80 -288 0
FLAG 256 -96 0
SYMBOL voltage -1232 16 R0
WINDOW 123 0 0 Left 2
WINDOW 39 0 0 Left 2
SYMATTR InstName V1
SYMATTR Value EXP(0 3 0.1 3 1 1)
SYMBOL cap -1088 0 R90
WINDOW 0 0 32 VBottom 2
WINDOW 3 32 32 VTop 2
SYMATTR InstName C1
SYMATTR Value 1
SYMBOL res -992 0 R90
WINDOW 0 0 56 VBottom 2
WINDOW 3 32 56 VTop 2
SYMATTR InstName R1
SYMATTR Value 10
SYMBOL cap -976 -48 R0
SYMATTR InstName C2
SYMATTR Value 1
SYMBOL res -864 -64 R90
WINDOW 0 0 56 VBottom 2
WINDOW 3 32 56 VTop 2
SYMATTR InstName R2
SYMATTR Value 10
SYMBOL res -784 -64 R90
WINDOW 0 0 56 VBottom 2
WINDOW 3 32 56 VTop 2
SYMATTR InstName R3
SYMATTR Value 10
SYMBOL cap -816 -48 R0
SYMATTR InstName C3
SYMATTR Value 1
SYMBOL res -704 0 R90
WINDOW 0 0 56 VBottom 2
WINDOW 3 32 56 VTop 2
SYMATTR InstName R4
SYMATTR Value 10
SYMBOL voltage -688 32 R0
WINDOW 123 0 0 Left 2
WINDOW 39 0 0 Left 2
SYMATTR InstName V2
SYMATTR Value 5
SYMBOL Opamps\\LT1001 -624 -96 R0
SYMATTR InstName U1
SYMBOL voltage -688 -176 R0
WINDOW 123 0 0 Left 2
WINDOW 39 0 0 Left 2
SYMATTR InstName V3
SYMATTR Value 10
SYMBOL cap -416 -48 R90
WINDOW 0 0 32 VBottom 2
WINDOW 3 32 32 VTop 2
SYMATTR InstName C4
SYMATTR Value 1
SYMBOL res -432 -48 R0
SYMATTR InstName R5
SYMATTR Value 10
SYMBOL cap -272 -48 R90
WINDOW 0 0 32 VBottom 2
WINDOW 3 32 32 VTop 2
SYMATTR InstName C5
SYMATTR Value 1
SYMBOL res -240 32 R90
WINDOW 0 0 56 VBottom 2
WINDOW 3 32 56 VTop 2
SYMATTR InstName R6
SYMATTR Value 10
SYMBOL res -272 64 R0
SYMATTR InstName R7
SYMATTR Value 10
SYMBOL res 144 192 R0
SYMATTR InstName R8
SYMATTR Value 100k
SYMBOL res 144 48 R0
SYMATTR InstName R9
SYMATTR Value 100k
SYMBOL res -176 32 R0
SYMATTR InstName R10
SYMATTR Value 10
SYMBOL cap -48 112 R90
WINDOW 0 0 32 VBottom 2
WINDOW 3 32 32 VTop 2
SYMATTR InstName C6
SYMATTR Value 1
SYMBOL Opamps\\LT1001 -64 352 R180
SYMATTR InstName U2
SYMBOL voltage -64 272 R180
WINDOW 0 24 96 Left 2
WINDOW 3 24 16 Left 2
WINDOW 123 0 0 Left 2
WINDOW 39 0 0 Left 2
SYMATTR InstName V4
SYMATTR Value 10
SYMBOL res 192 16 R90
WINDOW 0 0 56 VBottom 2
WINDOW 3 32 56 VTop 2
SYMATTR InstName R11
SYMATTR Value 10
SYMBOL Opamps\\LT1001 80 -112 M180
SYMATTR InstName U3
SYMBOL voltage 80 -192 R180
WINDOW 0 24 96 Left 2
WINDOW 3 24 16 Left 2
WINDOW 123 0 0 Left 2
WINDOW 39 0 0 Left 2
SYMATTR InstName V5
SYMATTR Value 10
SYMBOL res 240 -192 R0
SYMATTR InstName R12
SYMATTR Value 10
TEXT -1266 152 Left 2 !.tran 5
